Version 4
SHEET 1 1848 692
WIRE 608 32 400 32
WIRE -112 80 -320 80
WIRE 400 96 400 32
WIRE 608 128 608 32
WIRE -320 144 -320 80
WIRE -112 176 -112 80
WIRE 352 176 208 176
WIRE 208 208 208 176
WIRE -368 224 -512 224
WIRE -320 224 -320 192
WIRE 400 224 400 192
WIRE -512 256 -512 224
WIRE -320 272 -320 240
WIRE -96 416 -304 416
WIRE -304 480 -304 416
WIRE -96 512 -96 416
WIRE -304 528 -304 496
WIRE -352 560 -352 496
WIRE -352 560 -496 560
WIRE -496 592 -496 560
WIRE -304 608 -304 576
FLAG 208 288 0
FLAG 400 224 0
FLAG 608 208 0
FLAG -512 336 0
FLAG -320 272 0
FLAG -112 256 0
FLAG -496 672 0
FLAG -304 608 0
FLAG -96 592 0
SYMBOL voltage 608 112 R0
WINDOW 123 0 0 Left 0
WINDOW 39 0 0 Left 0
SYMATTR InstName Vds
SYMATTR Value 1
SYMBOL voltage 208 192 R0
WINDOW 123 0 0 Left 0
WINDOW 39 0 0 Left 0
SYMATTR InstName Vgs
SYMATTR Value 1
SYMBOL Contrib\\Toshiba\\nmos\\SSM3K56MFV 352 96 R0
SYMATTR InstName U1
SYMBOL voltage -112 160 R0
WINDOW 123 0 0 Left 0
WINDOW 39 0 0 Left 0
SYMATTR InstName Vds1
SYMATTR Value 1
SYMBOL voltage -512 240 R0
WINDOW 123 0 0 Left 0
WINDOW 39 0 0 Left 0
SYMATTR InstName Vgs1
SYMATTR Value 1
SYMBOL nmos4 -368 144 R0
SYMATTR InstName M1
SYMATTR Value NmosX
SYMBOL voltage -96 496 R0
WINDOW 123 0 0 Left 0
WINDOW 39 0 0 Left 0
SYMATTR InstName Vds2
SYMATTR Value 1
SYMBOL voltage -496 576 R0
WINDOW 123 0 0 Left 0
WINDOW 39 0 0 Left 0
SYMATTR InstName Vgs2
SYMATTR Value 1
SYMBOL pmos4 -352 576 M180
SYMATTR InstName M2
SYMATTR Value PmosX
TEXT 144 352 Left 2 !.dc Vds2 100m -1 -20m Vgs2 100m -1 -20m
TEXT 144 400 Left 2 !;.dc Vgs 0 3 1m Vds 0 3 500m
TEXT -680 72 Left 2 !.include mosX.lib
