Version 4
SHEET 1 4160 752
WIRE 720 -144 720 -160
WIRE -848 -128 -848 -144
WIRE 720 -32 720 -64
WIRE 720 -32 400 -32
WIRE -848 -16 -848 -48
WIRE -848 -16 -1168 -16
WIRE 400 -16 400 -32
WIRE 720 16 720 -32
WIRE -848 32 -848 -16
WIRE 672 32 608 32
WIRE -896 48 -960 48
WIRE 720 64 720 32
WIRE 400 80 400 64
WIRE 608 80 608 32
WIRE 608 80 400 80
WIRE -1168 96 -1168 64
WIRE -960 96 -960 48
WIRE -960 96 -1168 96
WIRE 400 96 400 80
WIRE -1168 112 -1168 96
WIRE -848 128 -848 112
WIRE 352 176 208 176
WIRE 400 176 400 144
WIRE -1216 192 -1360 192
WIRE 208 208 208 176
WIRE -1360 224 -1360 192
WIRE 400 224 400 192
WIRE -1168 240 -1168 208
WIRE 720 256 720 112
WIRE 816 256 720 256
WIRE 912 256 880 256
WIRE 944 256 912 256
WIRE 1056 256 1008 256
WIRE -848 272 -848 128
WIRE -752 272 -848 272
WIRE -656 272 -688 272
WIRE -624 272 -656 272
WIRE -512 272 -560 272
WIRE 912 288 912 256
WIRE -656 304 -656 272
WIRE 1056 304 1056 256
WIRE -512 320 -512 272
FLAG 1056 384 0
FLAG 720 -160 0
FLAG 912 368 0
FLAG 208 288 0
FLAG 400 224 0
FLAG -512 400 0
FLAG -848 -144 0
FLAG -656 384 0
FLAG -1360 304 0
FLAG -1168 240 0
SYMBOL cap 880 240 R90
WINDOW 0 0 32 VBottom 2
WINDOW 3 32 32 VTop 2
SYMATTR InstName C
SYMATTR Value 200p
SYMBOL cap 1008 240 R90
WINDOW 0 0 32 VBottom 2
WINDOW 3 32 32 VTop 2
SYMATTR InstName C_acoplamiento
SYMATTR Value 1µ
SYMBOL res 1072 400 R180
WINDOW 0 -74 79 Left 2
WINDOW 3 -56 49 Left 2
SYMATTR InstName Rchip
SYMATTR Value 11
SYMBOL voltage 720 -48 R180
WINDOW 0 24 96 Left 2
WINDOW 3 24 16 Left 2
WINDOW 123 0 0 Left 0
WINDOW 39 0 0 Left 0
SYMATTR InstName Vdac
SYMATTR Value {vdaq}
SYMBOL res 896 272 R0
SYMATTR InstName Rdac
SYMATTR Value 3.3k
SYMBOL voltage 208 192 R0
WINDOW 123 0 0 Left 0
WINDOW 39 0 0 Left 0
WINDOW 3 -197 127 Left 2
SYMATTR Value PULSE(0 3.3 100n 3n 3n 20n 200n 3)
SYMATTR InstName Control_sw0
SYMBOL nmos4 352 96 R0
WINDOW 3 66 97 Left 2
SYMATTR Value NmosX
SYMATTR InstName M1
SYMBOL pmos4 672 112 M180
SYMATTR InstName M3
SYMATTR Value PmosX
SYMBOL cap -688 256 R90
WINDOW 0 0 32 VBottom 2
WINDOW 3 32 32 VTop 2
SYMATTR InstName C1
SYMATTR Value 200p
SYMBOL cap -560 256 R90
WINDOW 0 0 32 VBottom 2
WINDOW 3 32 32 VTop 2
SYMATTR InstName C_acoplamiento1
SYMATTR Value 1µ
SYMBOL res -496 416 R180
WINDOW 0 -74 79 Left 2
WINDOW 3 -56 49 Left 2
SYMATTR InstName Rchip1
SYMATTR Value 11
SYMBOL voltage -848 -32 R180
WINDOW 0 24 96 Left 2
WINDOW 3 24 16 Left 2
WINDOW 123 0 0 Left 0
WINDOW 39 0 0 Left 0
SYMATTR InstName Vdac1
SYMATTR Value {Vdaq}
SYMBOL res -672 288 R0
SYMATTR InstName Rdac1
SYMATTR Value 3.3k
SYMBOL voltage -1360 208 R0
WINDOW 123 0 0 Left 0
WINDOW 39 0 0 Left 0
WINDOW 3 -197 127 Left 2
SYMATTR Value PULSE(0 3.3 100n 3n 3n 50n 200n)
SYMATTR InstName Control_sw2
SYMBOL res -1152 80 R180
WINDOW 0 36 76 Left 2
WINDOW 3 36 40 Left 2
SYMATTR InstName Rpu1
SYMATTR Value 50k
SYMBOL Contrib\\Toshiba\\nmos\\SSM3K56MFV -1216 112 R0
SYMATTR InstName U4
SYMBOL Contrib\\Toshiba\\pmos\\SSM3J56MFV -896 128 M180
SYMATTR InstName U1
SYMBOL res 384 -32 R0
SYMATTR InstName R1
SYMATTR Value 50k
TEXT 816 504 Left 2 !.tran 0 800n 0 0.1n
TEXT 40 24 Left 2 !.include mosX.lib
TEXT 816 536 Left 2 !;.param Vdaq=2
TEXT 816 568 Left 2 !.step param Vdaq 100m 1 100m
TEXT 816 608 Left 2 !.meas
