Version 4
SHEET 1 4508 872
WIRE 2240 -112 2240 -128
WIRE 3600 -96 3600 -112
WIRE 3600 0 3600 -16
WIRE 3600 0 3408 0
WIRE 2240 32 2240 -32
WIRE 2112 48 1808 48
WIRE 3600 48 3600 0
WIRE 3328 64 3328 0
WIRE 3328 64 3168 64
WIRE 3472 64 3328 64
WIRE 2240 80 2240 48
WIRE 1808 112 1808 48
WIRE 2112 112 2112 48
WIRE 2192 112 2192 48
WIRE 2192 112 2112 112
WIRE 3168 128 3168 64
WIRE 3472 128 3472 64
WIRE 3552 128 3552 64
WIRE 3552 128 3472 128
WIRE 2240 288 2240 128
WIRE 2336 288 2240 288
WIRE 2432 288 2400 288
WIRE 2464 288 2432 288
WIRE 2576 288 2528 288
WIRE 3600 304 3600 144
WIRE 3696 304 3600 304
WIRE 3792 304 3760 304
WIRE 3824 304 3792 304
WIRE 3936 304 3888 304
WIRE 2432 320 2432 288
WIRE 2576 336 2576 288
WIRE 3792 336 3792 304
WIRE 3936 352 3936 304
WIRE 2432 448 2432 400
WIRE 2544 448 2432 448
WIRE 2576 448 2576 416
WIRE 2576 448 2544 448
WIRE 3792 464 3792 416
WIRE 3904 464 3792 464
WIRE 3936 464 3936 432
WIRE 3936 464 3904 464
WIRE 2544 496 2544 448
WIRE 3904 512 3904 464
WIRE 2496 576 2272 576
WIRE 2544 576 2544 544
WIRE 3792 592 3632 592
WIRE 3856 592 3792 592
WIRE 2272 608 2272 576
WIRE 3632 624 3632 592
WIRE 3792 672 3792 592
WIRE 3904 672 3904 608
WIRE 3904 672 3872 672
WIRE 3904 704 3904 672
FLAG 2240 -128 0
FLAG 1808 192 0
FLAG 2544 592 0
FLAG 2272 688 0
FLAG 3600 -112 0
FLAG 3168 208 0
FLAG 3632 704 0
FLAG 3904 704 0
SYMBOL cap 2400 272 R90
WINDOW 0 0 32 VBottom 2
WINDOW 3 32 32 VTop 2
SYMATTR InstName C3
SYMATTR Value 300p
SYMBOL cap 2528 272 R90
WINDOW 0 0 32 VBottom 2
WINDOW 3 32 32 VTop 2
SYMATTR InstName C_acoplamiento3
SYMATTR Value 1µ
SYMBOL res 2592 432 R180
WINDOW 0 -74 79 Left 2
WINDOW 3 -56 49 Left 2
SYMATTR InstName Rchip3
SYMATTR Value 11
SYMBOL voltage 2240 -16 R180
WINDOW 0 24 96 Left 2
WINDOW 3 24 16 Left 2
WINDOW 123 0 0 Left 0
WINDOW 39 0 0 Left 0
SYMATTR InstName Vdac3
SYMATTR Value {vdaq}
SYMBOL res 2416 304 R0
SYMATTR InstName Rdac3
SYMATTR Value 3.3k
SYMBOL voltage 1808 96 R0
WINDOW 123 0 0 Left 0
WINDOW 39 0 0 Left 0
WINDOW 3 -197 127 Left 2
SYMATTR Value PULSE(0 2 100n 3n 3n 20n 200n 2)
SYMATTR InstName Control_sw1
SYMBOL pmos4 2192 128 M180
SYMATTR InstName M2
SYMATTR Value PmosX
SYMBOL nmos4 2496 496 R0
WINDOW 3 66 97 Left 2
SYMATTR Value NmosX
SYMATTR InstName M4
SYMBOL voltage 2272 592 R0
WINDOW 123 0 0 Left 0
WINDOW 39 0 0 Left 0
WINDOW 3 -197 127 Left 2
SYMATTR Value PULSE(0 2 200n 3n 3n 20n 200n 2)
SYMATTR InstName Control_sw3
SYMBOL cap 3760 288 R90
WINDOW 0 0 32 VBottom 2
WINDOW 3 32 32 VTop 2
SYMATTR InstName C2
SYMATTR Value 200p
SYMBOL cap 3888 288 R90
WINDOW 0 0 32 VBottom 2
WINDOW 3 32 32 VTop 2
SYMATTR InstName C_acoplamiento2
SYMATTR Value 1µ
SYMBOL res 3952 448 R180
WINDOW 0 -74 79 Left 2
WINDOW 3 -56 49 Left 2
SYMATTR InstName Rchip2
SYMATTR Value 11
SYMBOL voltage 3600 0 R180
WINDOW 0 24 96 Left 2
WINDOW 3 24 16 Left 2
WINDOW 123 0 0 Left 0
WINDOW 39 0 0 Left 0
SYMATTR InstName Vdac2
SYMATTR Value {vdaq}
SYMBOL res 3776 320 R0
SYMATTR InstName Rdac2
SYMATTR Value 3.3k
SYMBOL voltage 3168 112 R0
WINDOW 123 0 0 Left 0
WINDOW 39 0 0 Left 0
WINDOW 3 -197 127 Left 2
SYMATTR Value PULSE(0 2 100n 3n 3n 20n 200n)
SYMATTR InstName Control_sw4
SYMBOL voltage 3632 608 R0
WINDOW 123 0 0 Left 0
WINDOW 39 0 0 Left 0
WINDOW 3 -197 127 Left 2
SYMATTR Value PULSE(0 2 200n 3n 3n 20n 200n)
SYMATTR InstName Control_sw5
SYMBOL Contrib\\Toshiba\\pmos\\SSM3J56MFV 3552 144 M180
SYMATTR InstName U5
SYMBOL Contrib\\Toshiba\\nmos\\SSM3K56MFV 3856 512 R0
SYMATTR InstName U6
SYMBOL res 3424 -16 R90
WINDOW 0 0 56 VBottom 2
WINDOW 3 32 56 VTop 2
SYMATTR InstName R1
SYMATTR Value 100k
SYMBOL res 3888 656 R90
WINDOW 0 0 56 VBottom 2
WINDOW 3 32 56 VTop 2
SYMATTR InstName R2
SYMATTR Value 100k
TEXT 4128 752 Left 2 !.tran 0 800n 0 0.1n
TEXT 4128 784 Left 2 !;.param Vdaq=200m
TEXT 4128 816 Left 2 !.step param Vdaq 100m 1 200m
TEXT 4128 856 Left 2 !.meas
