Version 4
SHEET 1 5288 2480
WIRE 2304 704 2304 688
WIRE 2304 816 2304 784
WIRE 2304 816 2128 816
WIRE 2304 848 2304 816
WIRE 1872 864 1856 864
WIRE 2048 864 2048 816
WIRE 2048 864 1872 864
WIRE 2256 864 2048 864
WIRE 3840 880 3840 864
WIRE 2304 896 2304 864
WIRE 3840 1024 3840 960
WIRE 2304 1104 2304 944
WIRE 2304 1104 2288 1104
WIRE 2400 1104 2304 1104
WIRE 2496 1104 2464 1104
WIRE 2528 1104 2496 1104
WIRE 2640 1104 2592 1104
WIRE 2496 1136 2496 1104
WIRE 2640 1152 2640 1104
WIRE 2496 1264 2496 1216
WIRE 2560 1264 2496 1264
WIRE 2640 1264 2640 1232
WIRE 2640 1264 2560 1264
WIRE 2288 1280 2288 1104
WIRE 3936 1280 3712 1280
WIRE 4032 1280 4000 1280
WIRE 4064 1280 4032 1280
WIRE 4176 1280 4128 1280
WIRE 2560 1296 2560 1264
WIRE 4032 1312 4032 1280
WIRE 4176 1328 4176 1280
WIRE 2288 1360 2288 1328
WIRE 2352 1360 2336 1360
WIRE 2560 1360 2352 1360
WIRE 2352 1392 2352 1360
WIRE 2560 1392 2560 1360
WIRE 3712 1392 3712 1280
WIRE 4032 1440 4032 1392
WIRE 4096 1440 4032 1440
WIRE 4176 1440 4176 1408
WIRE 4176 1440 4096 1440
WIRE 2288 1472 2288 1376
WIRE 2352 1472 2288 1472
WIRE 4096 1472 4096 1440
WIRE 2288 1504 2288 1472
WIRE 2288 1648 2288 1632
WIRE 2288 1760 2288 1728
WIRE 2288 1760 2112 1760
WIRE 2288 1792 2288 1760
WIRE 2032 1808 2032 1760
WIRE 2032 1808 1840 1808
WIRE 2240 1808 2032 1808
WIRE 2288 2048 2288 1888
WIRE 2288 2048 2272 2048
WIRE 2384 2048 2288 2048
WIRE 2480 2048 2448 2048
WIRE 2512 2048 2480 2048
WIRE 2624 2048 2576 2048
WIRE 2480 2080 2480 2048
WIRE 2624 2096 2624 2048
WIRE 2480 2208 2480 2160
WIRE 2544 2208 2480 2208
WIRE 2624 2208 2624 2176
WIRE 2624 2208 2544 2208
WIRE 2272 2224 2272 2048
WIRE 2544 2240 2544 2208
WIRE 2336 2304 2320 2304
WIRE 2544 2304 2336 2304
WIRE 2336 2336 2336 2304
WIRE 2544 2336 2544 2304
WIRE 2272 2416 2272 2320
WIRE 2336 2416 2272 2416
WIRE 2272 2448 2272 2416
FLAG 2304 688 0
FLAG 1856 1200 0
FLAG 2560 1296 0
FLAG 2560 1472 0
FLAG 2288 1504 0
FLAG 2288 1632 0
FLAG 1840 2144 0
FLAG 2544 2240 0
FLAG 2544 2416 0
FLAG 2272 2448 0
FLAG 3840 864 0
FLAG 4096 1472 0
FLAG 3712 1472 0
FLAG 3376 1392 0
FLAG 1840 2064 0
FLAG 1840 1808 0
FLAG 1872 864 0
FLAG 1856 1120 0
SYMBOL cap 2464 1088 R90
WINDOW 0 0 32 VBottom 2
WINDOW 3 32 32 VTop 2
SYMATTR InstName C1
SYMATTR Value 350p
SYMBOL cap 2592 1088 R90
WINDOW 0 0 32 VBottom 2
WINDOW 3 32 32 VTop 2
SYMATTR InstName C_acoplamiento1
SYMATTR Value 1µ
SYMBOL res 2656 1248 R180
WINDOW 0 -74 79 Left 2
WINDOW 3 -56 49 Left 2
SYMATTR InstName Rchip1
SYMATTR Value 11
SYMBOL voltage 2304 800 R180
WINDOW 0 24 96 Left 2
WINDOW 3 24 16 Left 2
WINDOW 123 0 0 Left 0
WINDOW 39 0 0 Left 0
SYMATTR InstName Vdac1
SYMATTR Value {vdaq}
SYMBOL res 2480 1120 R0
SYMATTR InstName Rdac1
SYMATTR Value 3.3k
SYMBOL voltage 1856 1104 R0
WINDOW 123 0 0 Left 0
WINDOW 39 0 0 Left 0
WINDOW 3 -197 127 Left 2
SYMATTR Value PULSE(3.3 0 100n 3n 3n 50n 200n 0)
SYMATTR InstName Control_sw4
SYMBOL nmos4 2336 1280 M0
WINDOW 3 66 97 Left 2
SYMATTR Value NmosX
SYMATTR InstName M7
SYMBOL voltage 2560 1376 M0
WINDOW 123 0 0 Left 0
WINDOW 39 0 0 Left 0
WINDOW 3 -197 127 Left 2
SYMATTR Value PULSE(0 3.3 0n 3n 3n 50n 200n 0)
SYMATTR InstName Control_sw7
SYMBOL pmos4 2256 944 M180
SYMATTR InstName M2
SYMATTR Value PmosX
SYMBOL res 2144 800 R90
WINDOW 0 0 56 VBottom 2
WINDOW 3 32 56 VTop 2
SYMATTR InstName R1
SYMATTR Value 10k
SYMBOL res 2336 1376 R0
SYMATTR InstName R2
SYMATTR Value 10k
SYMBOL cap 2448 2032 R90
WINDOW 0 0 32 VBottom 2
WINDOW 3 32 32 VTop 2
SYMATTR InstName C2
SYMATTR Value 350p
SYMBOL cap 2576 2032 R90
WINDOW 0 0 32 VBottom 2
WINDOW 3 32 32 VTop 2
SYMATTR InstName C_acoplamiento2
SYMATTR Value 1µ
SYMBOL res 2640 2192 R180
WINDOW 0 -74 79 Left 2
WINDOW 3 -56 49 Left 2
SYMATTR InstName Rchip2
SYMATTR Value 11
SYMBOL voltage 2288 1744 R180
WINDOW 0 24 96 Left 2
WINDOW 3 24 16 Left 2
WINDOW 123 0 0 Left 0
WINDOW 39 0 0 Left 0
SYMATTR InstName Vdac2
SYMATTR Value {vdaq}
SYMBOL res 2464 2064 R0
SYMATTR InstName Rdac2
SYMATTR Value 3.3k
SYMBOL voltage 1840 2048 R0
WINDOW 123 0 0 Left 0
WINDOW 39 0 0 Left 0
WINDOW 3 -197 127 Left 2
SYMATTR Value PULSE(3.3 0 100n 3n 3n 50n 200n 0)
SYMATTR InstName Control_sw1
SYMBOL res 2128 1744 R90
WINDOW 0 0 56 VBottom 2
WINDOW 3 32 56 VTop 2
SYMATTR InstName R3
SYMATTR Value 10k
SYMBOL res 2320 2320 R0
SYMATTR InstName R4
SYMATTR Value 10k
SYMBOL Contrib\\Toshiba\\pmos\\SSM3J56MFV 2240 1888 M180
SYMATTR InstName U1
SYMBOL Contrib\\Toshiba\\nmos\\SSM3K36MFV 2320 2224 M0
SYMATTR InstName U4
SYMBOL voltage 2544 2320 M0
WINDOW 123 0 0 Left 0
WINDOW 39 0 0 Left 0
WINDOW 3 -197 127 Left 2
SYMATTR Value PULSE(0 3.3 0n 3n 3n 50n 200n 0)
SYMATTR InstName Control_sw2
SYMBOL cap 4000 1264 R90
WINDOW 0 0 32 VBottom 2
WINDOW 3 32 32 VTop 2
SYMATTR InstName C3
SYMATTR Value 350p
SYMBOL cap 4128 1264 R90
WINDOW 0 0 32 VBottom 2
WINDOW 3 32 32 VTop 2
SYMATTR InstName C_acoplamiento3
SYMATTR Value 1µ
SYMBOL res 4192 1424 R180
WINDOW 0 -74 79 Left 2
WINDOW 3 -56 49 Left 2
SYMATTR InstName Rchip3
SYMATTR Value 11
SYMBOL voltage 3840 976 R180
WINDOW 0 24 96 Left 2
WINDOW 3 24 16 Left 2
WINDOW 123 0 0 Left 0
WINDOW 39 0 0 Left 0
SYMATTR InstName Vdac3
SYMATTR Value {vdaq}
SYMBOL res 4016 1296 R0
SYMATTR InstName Rdac3
SYMATTR Value 3.3k
SYMBOL voltage 3712 1376 R0
WINDOW 123 0 0 Left 0
WINDOW 39 0 0 Left 0
WINDOW 3 -197 127 Left 2
SYMATTR Value PULSE(3 0 100n 4n 12n 100n 200n 0)
SYMATTR InstName Control_sw3
SYMBOL bv 3376 1296 R0
SYMATTR InstName B1
SYMATTR Value V=IDT(I(Rchip3))
TEXT 2936 704 Left 2 !;.param Vdaq=1
TEXT 2936 736 Left 2 !.step param Vdaq 100m 3 200m
TEXT 2936 776 Left 2 !.meas
TEXT 2944 640 Left 2 !.include mosX.lib
TEXT 2944 672 Left 2 !.tran 0 800n 0 1n
