Version 4
SHEET 1 880 680
WIRE 160 0 80 0
WIRE 368 0 240 0
WIRE 80 144 80 0
WIRE 160 144 80 144
WIRE 368 176 368 0
WIRE 368 176 304 176
WIRE 160 208 80 208
WIRE 80 368 80 208
WIRE 160 368 80 368
WIRE 368 368 240 368
FLAG 144 -192 0
FLAG 0 -112 0
FLAG 0 -192 3.3
IOPIN 0 -192 Out
FLAG 144 -112 -3.3
IOPIN 144 -112 Out
FLAG 192 96 3.3
IOPIN 192 96 In
FLAG 192 256 -3.3
IOPIN 192 256 In
FLAG -448 176 0
FLAG -448 352 0
FLAG -448 96 VI1
IOPIN -448 96 Out
FLAG -448 272 VI2
IOPIN -448 272 Out
FLAG 0 208 VI2
IOPIN 0 208 In
FLAG 0 144 VI1
IOPIN 0 144 In
FLAG 240 256 0
FLAG -736 240 0
FLAG 368 368 0
SYMBOL res 96 128 R90
WINDOW 0 0 56 VBottom 2
WINDOW 3 -53 56 VTop 2
SYMATTR InstName R1
SYMATTR Value 100
SYMBOL res 96 192 R90
WINDOW 0 84 58 VBottom 2
WINDOW 3 32 56 VTop 2
SYMATTR InstName R2
SYMATTR Value 100
SYMBOL voltage 0 -208 R0
WINDOW 123 0 0 Left 0
WINDOW 39 0 0 Left 0
SYMATTR InstName V1
SYMATTR Value 3.3
SYMBOL voltage 144 -208 R0
WINDOW 123 0 0 Left 0
WINDOW 39 0 0 Left 0
SYMATTR InstName V2
SYMATTR Value 3.3
SYMBOL res 256 -16 R90
WINDOW 0 0 56 VBottom 2
WINDOW 3 -53 56 VTop 2
SYMATTR InstName R3
SYMATTR Value 100
SYMBOL res 256 352 R90
WINDOW 0 84 58 VBottom 2
WINDOW 3 32 56 VTop 2
SYMATTR InstName R4
SYMATTR Value 100
SYMBOL voltage -448 80 R0
WINDOW 123 0 0 Left 0
WINDOW 39 0 0 Left 0
SYMATTR InstName V3
SYMATTR Value SINE(0 800m 10000k 0 0 0 100)
SYMBOL voltage -448 256 R0
WINDOW 123 0 0 Left 0
WINDOW 39 0 0 Left 0
SYMATTR InstName V4
SYMATTR Value SINE(0 200m 10000k 0 0 0 100)
SYMBOL bv -736 144 R0
SYMATTR InstName B1
SYMATTR Value V=V(vi1) - V(vi2)
SYMBOL OpAmps\\LTC6226 192 176 R0
SYMATTR InstName U1
TEXT -518 442 Left 2 !.tran 5u
