Version 4
SHEET 1 880 680
WIRE -32 96 -112 96
WIRE 80 96 32 96
WIRE -112 112 -112 96
WIRE 80 112 80 96
WIRE 80 208 80 176
WIRE 192 208 80 208
WIRE 80 224 80 208
WIRE 80 336 80 304
FLAG 80 336 0
FLAG 192 288 0
FLAG -112 192 0
FLAG -368 208 0
SYMBOL cap 64 112 R0
SYMATTR InstName C1
SYMATTR Value 1µ
SYMBOL voltage -112 96 R0
WINDOW 123 0 0 Left 0
WINDOW 39 0 0 Left 0
SYMATTR InstName V1
SYMATTR Value PULSE(0 5M 50n 5n 5n 50n 200n 2)
SYMBOL res 176 192 R0
SYMATTR InstName R2
SYMATTR Value 3.3
SYMBOL cap 32 80 R90
WINDOW 0 0 32 VBottom 2
WINDOW 3 32 32 VTop 2
SYMATTR InstName C2
SYMATTR Value 200p
SYMBOL res 64 208 R0
SYMATTR InstName R1
SYMATTR Value 11
SYMBOL bv -368 112 R0
SYMATTR InstName B1
SYMATTR Value V=IDT(I(R1))
TEXT -146 360 Left 2 !.tran 0 500n 0 0.1n
