Version 4
SHEET 1 1580 1300
WIRE -3136 64 -3312 64
WIRE -3312 96 -3312 64
WIRE -1872 144 -1872 80
WIRE -3312 224 -3312 160
WIRE -2048 224 -2144 224
WIRE -1920 224 -2048 224
WIRE -1552 240 -1872 240
WIRE -1168 240 -1552 240
WIRE -704 240 -1168 240
WIRE 160 240 -704 240
WIRE -2144 256 -2144 224
WIRE -1872 272 -1872 240
WIRE -1552 288 -1552 240
WIRE -1168 288 -1168 240
WIRE -704 288 -704 240
WIRE 160 288 160 240
WIRE -2048 304 -2048 224
WIRE -3616 336 -3616 320
WIRE -1872 368 -1872 352
WIRE -1744 368 -1824 368
WIRE -1600 368 -1744 368
WIRE -896 368 -992 368
WIRE -752 368 -896 368
WIRE -32 368 -144 368
WIRE 112 368 -32 368
WIRE -1376 384 -1552 384
WIRE -1168 384 -1168 352
WIRE -2048 416 -2048 384
WIRE -1552 448 -1552 384
WIRE -704 448 -704 384
WIRE 160 448 160 384
WIRE -1744 544 -1744 528
WIRE -1552 544 -1552 528
WIRE -896 544 -896 528
WIRE -704 544 -704 528
WIRE -32 544 -32 528
WIRE 160 544 160 528
WIRE -1376 816 -1376 448
WIRE -752 816 -1376 816
WIRE -560 816 -752 816
WIRE -752 832 -752 816
WIRE -560 912 -560 896
WIRE -752 928 -752 896
WIRE -752 1040 -752 1008
FLAG -752 1040 0
FLAG -2048 496 0
FLAG -3616 320 0
FLAG -1664 80 0
FLAG -1872 0 0
FLAG -2144 320 0
FLAG -3312 304 0
FLAG -3136 64 0
FLAG -3040 208 0
FLAG -560 912 0
FLAG -1552 544 0
FLAG -1744 544 0
FLAG -1872 368 0
FLAG -704 544 0
FLAG -896 544 0
FLAG 160 544 0
FLAG -32 544 0
FLAG -992 432 0
FLAG -144 432 0
FLAG -1824 432 0
FLAG -1168 384 0
SYMBOL cap -1392 384 R0
SYMATTR InstName C1
SYMATTR Value 100p
SYMBOL res -768 912 R0
WINDOW 0 37 46 Left 2
SYMATTR InstName NA0_Chip
SYMATTR Value 11
SYMBOL voltage -2048 400 R0
WINDOW 123 0 0 Left 0
WINDOW 39 0 0 Left 0
WINDOW 3 -272 137 Left 2
SYMATTR Value PULSE(0 3.3 20n 2n 2n 50 50 1)
SYMATTR InstName V1
SYMBOL cap -768 832 R0
SYMATTR InstName C4
SYMATTR Value 1µ
SYMBOL current -3616 336 R0
WINDOW 123 0 0 Left 0
WINDOW 39 0 0 Left 0
SYMATTR InstName I1
SYMATTR Value PWL(0.001n 0 0.01n 4m 0.1n 4m 0.11n 0)
SYMBOL bv -1664 -16 R0
SYMATTR InstName B2
SYMATTR Value V=IDT(I(NA0_Chip))
SYMBOL Contrib\\Toshiba\\nmos\\SSM3K56MFV -1920 144 R0
SYMATTR InstName U1
SYMBOL voltage -1872 96 R180
WINDOW 0 24 96 Left 2
WINDOW 3 24 16 Left 2
WINDOW 123 0 0 Left 0
WINDOW 39 0 0 Left 0
SYMATTR InstName V2
SYMATTR Value 3.3
SYMBOL res -2064 288 R0
SYMATTR InstName R2
SYMATTR Value 1
SYMBOL cap -2160 256 R0
SYMATTR InstName C2
SYMATTR Value 0.1p
SYMBOL cap -3328 96 R0
SYMATTR InstName C3
SYMATTR Value 10p
SYMBOL voltage -3312 208 R0
WINDOW 123 0 0 Left 0
WINDOW 39 0 0 Left 0
SYMATTR InstName V3
SYMATTR Value PULSE(0 3.3 2n 0.1p 0.1p 0.1n 10n 5)
SYMBOL bv -3040 112 R0
SYMATTR InstName B1
SYMATTR Value V=IDT(I(C3))
SYMBOL res -576 800 R0
SYMATTR InstName DAC
SYMATTR Value 3.3k
SYMBOL Contrib\\Toshiba\\nmos\\SSM3K56MFV -1600 288 R0
WINDOW 0 60 47 Left 2
WINDOW 38 61 18 Left 2
SYMATTR InstName U2
SYMBOL res -1568 432 R0
SYMATTR InstName R1
SYMATTR Value 10k
SYMBOL voltage -1744 432 R0
WINDOW 123 0 0 Left 0
WINDOW 39 0 0 Left 0
WINDOW 3 -209 154 Left 2
SYMATTR Value PULSE(0 3.3 50n 2n 2n 50 50 1)
SYMATTR InstName V4
SYMBOL res -1888 256 R0
SYMATTR InstName R3
SYMATTR Value 10k
SYMBOL Contrib\\Toshiba\\nmos\\SSM3K56MFV -752 288 R0
WINDOW 38 80 -6 Left 2
SYMATTR InstName U3
SYMBOL res -720 432 R0
SYMATTR InstName R4
SYMATTR Value 10k
SYMBOL voltage -896 432 R0
WINDOW 123 0 0 Left 0
WINDOW 39 0 0 Left 0
WINDOW 3 -209 154 Left 2
SYMATTR Value PULSE(0 3.3 80n 2n 2n 50 50 1)
SYMATTR InstName V5
SYMBOL Contrib\\Toshiba\\nmos\\SSM3K56MFV 112 288 R0
WINDOW 38 80 -6 Left 2
SYMATTR InstName U4
SYMBOL res 144 432 R0
SYMATTR InstName R5
SYMATTR Value 10k
SYMBOL voltage -32 432 R0
WINDOW 123 0 0 Left 0
WINDOW 39 0 0 Left 0
WINDOW 3 -209 154 Left 2
SYMATTR Value PULSE(0 3.3 110n 2n 2n 50 50 1)
SYMATTR InstName V6
SYMBOL res -912 352 R0
SYMATTR InstName R6
SYMATTR Value 1
SYMBOL cap -1008 368 R0
WINDOW 0 26 14 Left 2
SYMATTR InstName C9
SYMATTR Value 0.1p
SYMBOL res -48 352 R0
SYMATTR InstName R7
SYMATTR Value 1
SYMBOL cap -160 368 R0
WINDOW 0 30 16 Left 2
SYMATTR InstName C10
SYMATTR Value 0.1p
SYMBOL res -1760 352 R0
SYMATTR InstName R8
SYMATTR Value 1
SYMBOL cap -1840 368 R0
WINDOW 0 26 14 Left 2
SYMATTR InstName C11
SYMATTR Value 0.1p
SYMBOL cap -1184 288 R0
SYMATTR InstName C6
SYMATTR Value 0.1µ
TEXT -2368 8 Left 2 !.tran 0 150n 0 100n
