Version 4
SHEET 1 3480 2228
WIRE -1872 144 -1872 80
WIRE -2048 224 -2144 224
WIRE -1920 224 -2048 224
WIRE -1552 240 -1872 240
WIRE -1168 240 -1552 240
WIRE -704 240 -1168 240
WIRE 160 240 -704 240
WIRE -2144 256 -2144 224
WIRE 160 256 160 240
WIRE 784 256 160 256
WIRE -1872 272 -1872 240
WIRE -1552 288 -1552 240
WIRE -1168 288 -1168 240
WIRE -704 288 -704 240
WIRE 160 288 160 256
WIRE -2048 304 -2048 224
WIRE 784 304 784 256
WIRE -1872 368 -1872 352
WIRE -1744 368 -1824 368
WIRE -1600 368 -1744 368
WIRE -896 368 -992 368
WIRE -752 368 -896 368
WIRE -32 368 -144 368
WIRE 112 368 -32 368
WIRE -1376 384 -1552 384
WIRE -1168 384 -1168 352
WIRE -528 384 -704 384
WIRE 336 384 160 384
WIRE 592 384 496 384
WIRE 736 384 592 384
WIRE 960 400 784 400
WIRE -2048 416 -2048 384
WIRE -1552 448 -1552 384
WIRE -704 448 -704 384
WIRE 160 448 160 384
WIRE 784 464 784 400
WIRE -1744 544 -1744 528
WIRE -1552 544 -1552 528
WIRE -896 544 -896 528
WIRE -704 544 -704 528
WIRE -32 544 -32 528
WIRE 160 544 160 528
WIRE 592 560 592 544
WIRE 784 560 784 544
WIRE -1376 816 -1376 448
WIRE -752 816 -1376 816
WIRE -560 816 -752 816
WIRE -528 816 -528 448
WIRE -528 816 -560 816
WIRE 336 816 336 448
WIRE 336 816 -528 816
WIRE 960 816 960 464
WIRE 960 816 336 816
WIRE -752 832 -752 816
WIRE -560 912 -560 896
WIRE -752 928 -752 896
WIRE -752 1040 -752 1008
WIRE -2016 1264 -2016 1200
WIRE -2192 1344 -2288 1344
WIRE -2064 1344 -2192 1344
WIRE -1696 1360 -1696 1328
WIRE -1696 1360 -2016 1360
WIRE -2288 1376 -2288 1344
WIRE -2016 1392 -2016 1360
WIRE -1696 1408 -1696 1360
WIRE -2192 1424 -2192 1344
WIRE -2016 1488 -2016 1472
WIRE -1888 1488 -1968 1488
WIRE -1744 1488 -1888 1488
WIRE -1520 1504 -1696 1504
WIRE -2192 1536 -2192 1504
WIRE -1696 1568 -1696 1504
WIRE -1520 1584 -1520 1568
WIRE -1376 1584 -1520 1584
WIRE -1376 1616 -1376 1584
WIRE -1888 1664 -1888 1648
WIRE -1696 1664 -1696 1648
WIRE -1520 1680 -1520 1648
WIRE -1520 1792 -1520 1760
FLAG -752 1040 0
FLAG -2048 496 0
FLAG -1664 80 0
FLAG -1872 0 0
FLAG -2144 320 0
FLAG -560 912 0
FLAG -1552 544 0
FLAG -1744 544 0
FLAG -1872 368 0
FLAG -704 544 0
FLAG -896 544 0
FLAG 160 544 0
FLAG -32 544 0
FLAG -992 432 0
FLAG -144 432 0
FLAG -1824 432 0
FLAG -1168 384 0
FLAG 784 560 0
FLAG 592 560 0
FLAG 496 448 0
FLAG -1520 1792 0
FLAG -2192 1616 0
FLAG -2016 1120 0
FLAG -2288 1440 0
FLAG -1696 1664 0
FLAG -1888 1664 0
FLAG -2016 1488 0
FLAG -1968 1552 0
FLAG -1696 1264 0
FLAG -1376 1696 0
SYMBOL cap -1392 384 R0
SYMATTR InstName C1
SYMATTR Value 2p
SYMBOL res -768 912 R0
WINDOW 0 37 46 Left 2
SYMATTR InstName NA0_Chip
SYMATTR Value 11
SYMBOL voltage -2048 400 R0
WINDOW 123 0 0 Left 0
WINDOW 39 0 0 Left 0
WINDOW 3 -272 137 Left 2
SYMATTR Value PULSE(0 3.3 20n 2n 2n 50 50 1)
SYMATTR InstName V1
SYMBOL cap -768 832 R0
SYMATTR InstName C4
SYMATTR Value 1µ
SYMBOL bv -1664 -16 R0
SYMATTR InstName B2
SYMATTR Value V=IDT(I(NA0_Chip))
SYMBOL Contrib\\Toshiba\\nmos\\SSM3K56MFV -1920 144 R0
SYMATTR InstName U1
SYMBOL voltage -1872 96 R180
WINDOW 0 24 96 Left 2
WINDOW 3 24 16 Left 2
WINDOW 123 0 0 Left 0
WINDOW 39 0 0 Left 0
SYMATTR InstName V2
SYMATTR Value 3.3
SYMBOL res -2064 288 R0
SYMATTR InstName R2
SYMATTR Value 1
SYMBOL cap -2160 256 R0
SYMATTR InstName C2
SYMATTR Value 0.1p
SYMBOL res -576 800 R0
SYMATTR InstName DAC
SYMATTR Value 3.3k
SYMBOL Contrib\\Toshiba\\nmos\\SSM3K56MFV -1600 288 R0
WINDOW 0 60 47 Left 2
WINDOW 38 61 18 Left 2
SYMATTR InstName U2
SYMBOL res -1568 432 R0
SYMATTR InstName R1
SYMATTR Value 10k
SYMBOL voltage -1744 432 R0
WINDOW 123 0 0 Left 0
WINDOW 39 0 0 Left 0
WINDOW 3 -209 154 Left 2
SYMATTR Value PULSE(0 3.3 10050n 2n 2n 20n 50 1)
SYMATTR InstName V4
SYMBOL res -1888 256 R0
SYMATTR InstName R3
SYMATTR Value 10k
SYMBOL cap -544 384 R0
SYMATTR InstName C5
SYMATTR Value 1p
SYMBOL Contrib\\Toshiba\\nmos\\SSM3K56MFV -752 288 R0
WINDOW 38 80 -6 Left 2
SYMATTR InstName U3
SYMBOL res -720 432 R0
SYMATTR InstName R4
SYMATTR Value 10k
SYMBOL voltage -896 432 R0
WINDOW 123 0 0 Left 0
WINDOW 39 0 0 Left 0
WINDOW 3 -209 154 Left 2
SYMATTR Value PULSE(0 3.3 10080n 2n 2n 20n 1 1)
SYMATTR InstName V5
SYMBOL cap 320 384 R0
SYMATTR InstName C7
SYMATTR Value 0.7p
SYMBOL Contrib\\Toshiba\\nmos\\SSM3K56MFV 112 288 R0
WINDOW 38 80 -6 Left 2
SYMATTR InstName U4
SYMBOL res 144 432 R0
SYMATTR InstName R5
SYMATTR Value 10k
SYMBOL voltage -32 432 R0
WINDOW 123 0 0 Left 0
WINDOW 39 0 0 Left 0
WINDOW 3 -209 154 Left 2
SYMATTR Value PULSE(0 3.3 10110n 2n 2n 20n 1 1)
SYMATTR InstName V6
SYMBOL res -912 352 R0
SYMATTR InstName R6
SYMATTR Value 1
SYMBOL cap -1008 368 R0
WINDOW 0 26 14 Left 2
SYMATTR InstName C9
SYMATTR Value 0.1p
SYMBOL res -48 352 R0
SYMATTR InstName R7
SYMATTR Value 1
SYMBOL cap -160 368 R0
WINDOW 0 30 16 Left 2
SYMATTR InstName C10
SYMATTR Value 0.1p
SYMBOL res -1760 352 R0
SYMATTR InstName R8
SYMATTR Value 1
SYMBOL cap -1840 368 R0
WINDOW 0 26 14 Left 2
SYMATTR InstName C11
SYMATTR Value 0.1p
SYMBOL cap -1184 288 R0
SYMATTR InstName C6
SYMATTR Value 500p
SYMBOL cap 944 400 R0
SYMATTR InstName C8
SYMATTR Value 0.2p
SYMBOL Contrib\\Toshiba\\nmos\\SSM3K56MFV 736 304 R0
WINDOW 38 80 -6 Left 2
SYMATTR InstName U5
SYMBOL res 768 448 R0
SYMATTR InstName R9
SYMATTR Value 10k
SYMBOL voltage 592 448 R0
WINDOW 123 0 0 Left 0
WINDOW 39 0 0 Left 0
WINDOW 3 -209 154 Left 2
SYMATTR Value PULSE(0 3.3 10140n 2n 2n 20n 1 1)
SYMATTR InstName V7
SYMBOL res 576 368 R0
SYMATTR InstName R11
SYMATTR Value 1
SYMBOL cap 480 384 R0
WINDOW 0 26 14 Left 2
SYMATTR InstName C13
SYMATTR Value 0.1p
SYMBOL cap -1536 1504 R0
SYMATTR InstName C3
SYMATTR Value 2p
SYMBOL res -1536 1664 R0
WINDOW 0 37 46 Left 2
SYMATTR InstName NA1
SYMATTR Value 11
SYMBOL voltage -2192 1520 R0
WINDOW 123 0 0 Left 0
WINDOW 39 0 0 Left 0
WINDOW 3 -272 137 Left 2
SYMATTR Value PULSE(0 3.3 20n 2n 2n 50 50 1)
SYMATTR InstName V3
SYMBOL cap -1536 1584 R0
SYMATTR InstName C12
SYMATTR Value 1µ
SYMBOL Contrib\\Toshiba\\nmos\\SSM3K56MFV -2064 1264 R0
SYMATTR InstName U6
SYMBOL voltage -2016 1216 R180
WINDOW 0 24 96 Left 2
WINDOW 3 24 16 Left 2
WINDOW 123 0 0 Left 0
WINDOW 39 0 0 Left 0
SYMATTR InstName V8
SYMATTR Value 3.3
SYMBOL res -2208 1408 R0
SYMATTR InstName R10
SYMATTR Value 1
SYMBOL cap -2304 1376 R0
SYMATTR InstName C14
SYMATTR Value 0.1p
SYMBOL Contrib\\Toshiba\\nmos\\SSM3K56MFV -1744 1408 R0
WINDOW 0 60 47 Left 2
WINDOW 38 61 18 Left 2
SYMATTR InstName U7
SYMBOL res -1712 1552 R0
SYMATTR InstName R12
SYMATTR Value 10k
SYMBOL voltage -1888 1552 R0
WINDOW 123 0 0 Left 0
WINDOW 39 0 0 Left 0
WINDOW 3 -209 154 Left 2
SYMATTR Value PULSE(0 3.3 10030n 2n 2n 20n 50 1)
SYMATTR InstName V9
SYMBOL res -2032 1376 R0
SYMATTR InstName R13
SYMATTR Value 10k
SYMBOL res -1904 1472 R0
SYMATTR InstName R18
SYMATTR Value 1
SYMBOL cap -1984 1488 R0
WINDOW 0 26 14 Left 2
SYMATTR InstName C19
SYMATTR Value 0.1p
SYMBOL cap -1712 1264 R0
SYMATTR InstName C15
SYMATTR Value 500p
SYMBOL res -1392 1600 R0
SYMATTR InstName R14
SYMATTR Value 3.3k
TEXT -2368 8 Left 2 !.tran 0 10.3u 10u 1n
