Version 4
SHEET 1 3564 680
WIRE 720 96 720 16
WIRE 1920 96 1920 16
WIRE 672 176 464 176
WIRE 720 176 720 144
WIRE 1872 176 1664 176
WIRE 464 208 464 176
WIRE 1664 208 1664 176
WIRE 720 256 720 192
WIRE 816 256 720 256
WIRE 912 256 880 256
WIRE 944 256 912 256
WIRE 1056 256 1008 256
WIRE 1920 256 1920 192
WIRE 2016 256 1920 256
WIRE 2112 256 2080 256
WIRE 2144 256 2112 256
WIRE 2256 256 2208 256
WIRE 912 288 912 256
WIRE 2112 288 2112 256
WIRE 1056 304 1056 256
WIRE 2256 304 2256 256
WIRE 720 336 720 256
WIRE 1920 336 1920 256
WIRE 672 416 432 416
WIRE 720 416 720 384
WIRE 1872 416 1632 416
WIRE 720 544 720 432
WIRE 1920 544 1920 432
FLAG 1056 384 0
FLAG 720 -64 0
FLAG 432 496 0
FLAG 912 368 0
FLAG 720 544 0
FLAG 464 288 0
FLAG 2256 384 0
FLAG 1920 -64 0
FLAG 1632 496 0
FLAG 2112 368 0
FLAG 1920 544 0
FLAG 1664 288 0
SYMBOL cap 880 240 R90
WINDOW 0 0 32 VBottom 2
WINDOW 3 32 32 VTop 2
SYMATTR InstName C
SYMATTR Value 100p
SYMBOL cap 1008 240 R90
WINDOW 0 0 32 VBottom 2
WINDOW 3 32 32 VTop 2
SYMATTR InstName C_acoplamiento
SYMATTR Value 1µ
SYMBOL res 1072 400 R180
WINDOW 0 -74 79 Left 2
WINDOW 3 -56 49 Left 2
SYMATTR InstName Rchip
SYMATTR Value 11
SYMBOL voltage 720 32 R180
WINDOW 0 24 96 Left 2
WINDOW 3 24 16 Left 2
WINDOW 123 0 0 Left 0
WINDOW 39 0 0 Left 0
SYMATTR InstName Vdac
SYMATTR Value 500m
SYMBOL res 896 272 R0
SYMATTR InstName Rdac
SYMATTR Value 3.3k
SYMBOL voltage 464 192 R0
WINDOW 123 0 0 Left 0
WINDOW 39 0 0 Left 0
WINDOW 3 -197 127 Left 2
SYMATTR InstName Control_sw0
SYMATTR Value PULSE(0 3.3 100n 3n 3n 100n 200n 2)
SYMBOL voltage 432 400 R0
WINDOW 123 0 0 Left 0
WINDOW 39 0 0 Left 0
WINDOW 0 34 33 Left 2
WINDOW 3 -197 127 Left 2
SYMATTR InstName Control_sw1
SYMATTR Value PULSE(0 3.3 0 3n 3n 20n 200n 2)
SYMBOL nmos4 672 336 R0
SYMATTR InstName M2
SYMBOL nmos4 672 96 R0
SYMATTR InstName M1
SYMBOL cap 2080 240 R90
WINDOW 0 0 32 VBottom 2
WINDOW 3 32 32 VTop 2
SYMATTR InstName C1
SYMATTR Value 100p
SYMBOL cap 2208 240 R90
WINDOW 0 0 32 VBottom 2
WINDOW 3 32 32 VTop 2
SYMATTR InstName C_acoplamiento1
SYMATTR Value 1µ
SYMBOL res 2272 400 R180
WINDOW 0 -74 79 Left 2
WINDOW 3 -56 49 Left 2
SYMATTR InstName Rchip1
SYMATTR Value 11
SYMBOL voltage 1920 32 R180
WINDOW 0 24 96 Left 2
WINDOW 3 24 16 Left 2
WINDOW 123 0 0 Left 0
WINDOW 39 0 0 Left 0
SYMATTR InstName Vdac1
SYMATTR Value 1.8
SYMBOL res 2096 272 R0
SYMATTR InstName Rdac1
SYMATTR Value 3.3k
SYMBOL voltage 1664 192 R0
WINDOW 123 0 0 Left 0
WINDOW 39 0 0 Left 0
WINDOW 3 -197 127 Left 2
SYMATTR InstName Control_sw2
SYMATTR Value PULSE(0 3.3 100n 3n 3n 40n 200n 2)
SYMBOL voltage 1632 400 R0
WINDOW 123 0 0 Left 0
WINDOW 39 0 0 Left 0
WINDOW 0 34 33 Left 2
WINDOW 3 -197 127 Left 2
SYMATTR InstName Control_sw3
SYMATTR Value PULSE(0 3.3 0 3n 3n 20n 200n 2)
SYMBOL Contrib\\Toshiba\\nmos\\SSM3K56MFV 1872 96 R0
SYMATTR InstName U1
SYMBOL Contrib\\Toshiba\\nmos\\SSM3K56MFV 1872 336 R0
SYMATTR InstName U3
TEXT 816 504 Left 2 !.tran 0 500n 0 0.01n
TEXT 2016 504 Left 2 !;tran 0 500n 0 0.01n
