Version 4
SHEET 1 1580 980
WIRE -1568 240 -2048 240
WIRE -1568 320 -1568 304
WIRE -1456 320 -1568 320
WIRE -1568 336 -1568 320
WIRE -1456 368 -1456 320
WIRE -2048 416 -2048 240
WIRE -1568 432 -1568 400
WIRE -1568 544 -1568 512
FLAG -1568 544 0
FLAG -2048 496 0
FLAG -1456 448 0
FLAG -2512 304 0
FLAG -2464 768 0
FLAG -2144 768 0
SYMBOL cap -1584 240 R0
SYMATTR InstName C1
SYMATTR Value 0.12p
SYMBOL res -1584 416 R0
SYMATTR InstName R1
SYMATTR Value 11
SYMBOL voltage -2048 400 R0
WINDOW 123 0 0 Left 0
WINDOW 39 0 0 Left 0
WINDOW 3 -272 137 Left 2
SYMATTR Value PULSE(0 3.3 0 2n 1n 50 50 1)
SYMATTR InstName V1
SYMBOL cap -1584 336 R0
SYMATTR InstName C4
SYMATTR Value 1µ
SYMBOL res -1472 352 R0
SYMATTR InstName R3
SYMATTR Value 3.3k
SYMBOL current -2512 304 R0
WINDOW 123 0 0 Left 0
WINDOW 39 0 0 Left 0
SYMATTR InstName I1
SYMATTR Value PWL(0.001n 0 0.01n 4m 0.1n 4m 0.11n 0)
SYMBOL bv -2464 672 R0
SYMATTR InstName B1
SYMATTR Value V=IDT(I(I1))
SYMBOL bv -2144 672 R0
SYMATTR InstName B2
SYMATTR Value V=IDT(I(R1))
TEXT -856 720 Left 2 !.tran 0 5n 0 100n
